*KEYWORD
$
$ File created by cubit version 2021.4
$...>....1....>....2....>....3....>....4....>....5....>....6....>....7....>....8
*TITLE
$ cubit(C:/Users/Professional/Downloads/mesh_v1.k): 07/11/2021: 18:19:11
*PART
Block 1
$    pid     sid     mid   eosid    hgid    grav  adpopt    tmid
       1       1     100       0       0       0       0     100
*SECTION_SHELL
       1
$     t1      t2      t3      t4
       1       1       1       1

*MAT_ELASTIC
     100   7e-06  206800    0.29     0.0     0.0       0
*MAT_THERMAL_ISOTROPIC
     100     0.0     0.0     0.0     0.0     0.0
     500   0.045
*NODE
$    nid               x               y               z      tc      rc
      87        -6.56657         1.81913               0       0       0
     314        -5.64493          1.7524               0       0       0
     316        -5.78741          2.5765               0       0       0
     286        -6.64708         2.61768               0       0       0
      74        -6.72759         3.41624               0       0       0
     232        -5.92989         3.40061               0       0       0
      83        -5.13218         3.38499               0       0       0
     265        -4.92774         2.53533               0       0       0
      82        -4.72329         1.68567               0       0       0
     315        -5.59514        0.942607               0       0       0
     262         -4.6725        0.877601               0       0       0
      78         -4.6217       0.0695361               0       0       0
     308        -5.54535        0.132818               0       0       0
      92        -6.46899        0.196101               0       0       0
     289        -6.51778         1.00761               0       0       0
      85         6.56523        -1.81812               0       0       0
     311         5.64377        -1.75151               0       0       0
     313          5.7866        -2.57588               0       0       0
     272         6.64615        -2.61699               0       0       0
      72         6.72708        -3.41585               0       0       0
$ ... 296 like lines cut
$
$...>....1....>....2....>....3....>....4....>....5....>....6....>....7....>....8
$    eid     pid      n1      n2      n3      n4      n5      n6      n7      n8
*ELEMENT_SHELL
       1       1      87     314     316     286
       2       1      74     286     316     232
       3       1      83     232     316     265
       4       1      82     265     316     314
       5       1      82     314     315     262
       6       1      78     262     315     308
       7       1      92     308     315     289
       8       1      87     289     315     314
       9       1      85     311     313     272
      10       1      72     272     313     209
      11       1      80     209     313     258
      12       1      79     258     313     311
      13       1      79     311     312     255
      14       1      77     255     312     302
      15       1      90     302     312     275
      16       1      85     275     312     311
      17       1      65     157     310     297
      18       1      88     297     310     295
      19       1      91     295     310     306
      20       1      66     306     310     157
$ ... 244 like lines cut
*END
