*KEYWORD
$
$ File created by cubit version 2021.4
$...>....1....>....2....>....3....>....4....>....5....>....6....>....7....>....8
*TITLE
$ cubit(C:/Users/Professional/Downloads/mesh_v5_4026nodes.k): 07/14/2021: 11:45:46
*PART
Block 1
$    pid     sid     mid   eosid    hgid    grav  adpopt    tmid
       1       1     100       0       0       0       0     100
*SECTION_SHELL
       1
$     t1      t2      t3      t4
       1       1       1       1

*MAT_ELASTIC
     100   7e-06  206800    0.29     0.0     0.0       0
*MAT_THERMAL_ISOTROPIC
     100     0.0     0.0     0.0     0.0     0.0
     500   0.045
*NODE
$    nid               x               y               z      tc      rc
     599         3.35401         3.61143               0       0       0
    2516         3.09977         3.51894               0       0       0
    4026         3.21312         3.29482               0       0       0
    3168         3.42743         3.40441               0       0       0
     806         3.50085         3.19739               0       0       0
    2930         3.32646         3.07071               0       0       0
     548         3.15208         2.94404               0       0       0
    2353         2.99881         3.18524               0       0       0
     600         2.84554         3.42645               0       0       0
    1054        -1.42982        -3.86854               0       0       0
    4023        -1.28042        -3.76224               0       0       0
    4025        -1.48427        -3.67341               0       0       0
    4021        -1.59466        -3.81903               0       0       0
     605        -1.75951        -3.76952               0       0       0
    2527        -1.68813        -3.58459               0       0       0
     386        -1.61674        -3.39965               0       0       0
    1835        -1.37389         -3.5278               0       0       0
    1053        -1.13103        -3.65594               0       0       0
     603       -0.986747        -4.13979               0       0       0
    4017        -1.05889        -3.89787               0       0       0
$ ... 4006 like lines cut
$
$...>....1....>....2....>....3....>....4....>....5....>....6....>....7....>....8
$    eid     pid      n1      n2      n3      n4      n5      n6      n7      n8
*ELEMENT_SHELL
       1       1     599    2516    4026    3168
       2       1     806    3168    4026    2930
       3       1     548    2930    4026    2353
       4       1     600    2353    4026    2516
       5       1    1054    4023    4025    4021
       6       1     605    4021    4025    2527
       7       1     386    2527    4025    1835
       8       1    1053    1835    4025    4023
       9       1     603    4017    4024    2523
      10       1     385    2523    4024    4020
      11       1    1054    4020    4024    4023
      12       1    1053    4023    4024    4017
      13       1     604    2264    4022    2707
      14       1     605    2707    4022    4021
      15       1    1054    4021    4022    4020
      16       1     385    4020    4022    2264
      17       1    1053    4016    4019    1836
      18       1     205    1836    4019    1110
      19       1     204    1110    4019    1831
      20       1     384    1831    4019    4016
$ ... 3816 like lines cut
*END
