*KEYWORD
$
$ File created by cubit version 2021.4
$...>....1....>....2....>....3....>....4....>....5....>....6....>....7....>....8
*TITLE
$ cubit(C:/Users/Professional/Downloads/mesh_v3_1410nodes.k): 07/11/2021: 18:24:19
*PART
Block 1
$    pid     sid     mid   eosid    hgid    grav  adpopt    tmid
       1       1     100       0       0       0       0     100
*SECTION_SHELL
       1
$     t1      t2      t3      t4
       1       1       1       1

*MAT_ELASTIC
     100   7e-06  206800    0.29     0.0     0.0       0
*MAT_THERMAL_ISOTROPIC
     100     0.0     0.0     0.0     0.0     0.0
     500   0.045
*NODE
$    nid               x               y               z      tc      rc
       2         2.91283       -0.717947               0       0       0
     709         3.25843        -1.18283               0       0       0
    1410         3.69892        -1.04174               0       0       0
     702         3.42062       -0.610341               0       0       0
     186         3.92842       -0.502734               0       0       0
    1057         4.13942       -0.900653               0       0       0
     379         4.35042        -1.29857               0       0       0
    1408         3.97723        -1.47314               0       0       0
     380         3.60403        -1.64772               0       0       0
    1055         3.81866        -2.01431               0       0       0
    1409         4.18584        -1.84787               0       0       0
    1215         4.55302        -1.68142               0       0       0
     330         4.75563        -2.06426               0       0       0
    1400         4.39445        -2.22259               0       0       0
     286         4.03328        -2.38091               0       0       0
     377        -6.24486        -1.55996               0       0       0
    1405        -6.51269        -1.24001               0       0       0
    1407        -6.71045        -1.48653               0       0       0
    1379        -6.45708        -1.69495               0       0       0
     376         -6.6693        -1.82994               0       0       0
$ ... 1390 like lines cut
$
$...>....1....>....2....>....3....>....4....>....5....>....6....>....7....>....8
$    eid     pid      n1      n2      n3      n4      n5      n6      n7      n8
*ELEMENT_SHELL
       1       1       2     709    1410     702
       2       1     186     702    1410    1057
       3       1     379    1057    1410    1408
       4       1     380    1408    1410     709
       5       1     380    1055    1409    1408
       6       1     379    1408    1409    1215
       7       1     330    1215    1409    1400
       8       1     286    1400    1409    1055
       9       1     377    1405    1407    1379
      10       1     376    1379    1407    1376
      11       1     365    1376    1407    1326
      12       1     364    1326    1407    1405
      13       1     364    1405    1406    1387
      14       1     355    1387    1406    1299
      15       1     354    1299    1406    1381
      16       1     377    1381    1406    1405
      17       1     374    1402    1404    1368
      18       1     341    1368    1404    1249
      19       1     340    1249    1404    1363
      20       1     373    1363    1404    1402
$ ... 1280 like lines cut
*END
