*KEYWORD
$
$ File created by cubit version 2021.4
$...>....1....>....2....>....3....>....4....>....5....>....6....>....7....>....8
*TITLE
$ cubit(C:/Users/Professional/Downloads/mesh_v6_4544nodes.k): 07/14/2021: 11:46:52
*PART
Block 1
$    pid     sid     mid   eosid    hgid    grav  adpopt    tmid
       1       1     100       0       0       0       0     100
*SECTION_SHELL
       1
$     t1      t2      t3      t4
       1       1       1       1

*MAT_ELASTIC
     100   7e-06  206800    0.29     0.0     0.0       0
*MAT_THERMAL_ISOTROPIC
     100     0.0     0.0     0.0     0.0     0.0
     500   0.045
*NODE
$    nid               x               y               z      tc      rc
    1186        -3.00011        -3.91209               0       0       0
    4540        -3.01279         -3.7892               0       0       0
    4544        -3.14799        -3.75538               0       0       0
    2588        -3.15805        -3.89656               0       0       0
     591        -3.31598        -3.88103               0       0       0
    3204        -3.28319        -3.72155               0       0       0
     783         -3.2504        -3.56207               0       0       0
    4542        -3.13793        -3.61419               0       0       0
     592        -3.02546        -3.66632               0       0       0
    4539        -2.92567        -3.59555               0       0       0
    4543        -3.04136        -3.51272               0       0       0
    3377        -3.15705        -3.42989               0       0       0
     784         -3.0637        -3.29771               0       0       0
    3093        -2.94479        -3.41125               0       0       0
    1185        -2.82588        -3.52479               0       0       0
    2591        -2.84433        -3.87265               0       0       0
    4541          -2.885         -3.7341               0       0       0
    3090        -2.75721          -3.679               0       0       0
     593        -2.68854        -3.83321               0       0       0
     457         2.17907         4.00355               0       0       0
$ ... 4524 like lines cut
$
$...>....1....>....2....>....3....>....4....>....5....>....6....>....7....>....8
$    eid     pid      n1      n2      n3      n4      n5      n6      n7      n8
*ELEMENT_SHELL
       1       1    1186    4540    4544    2588
       2       1     591    2588    4544    3204
       3       1     783    3204    4544    4542
       4       1     592    4542    4544    4540
       5       1     592    4539    4543    4542
       6       1     783    4542    4543    3377
       7       1     784    3377    4543    3093
       8       1    1185    3093    4543    4539
       9       1    1186    2591    4541    4540
      10       1     592    4540    4541    4539
      11       1    1185    4539    4541    3090
      12       1     593    3090    4541    2591
      13       1     457    2802    4538    2172
      14       1     456    2172    4538    2924
      15       1     699    2924    4538    4536
      16       1     519    4536    4538    2802
      17       1     699    4536    4537    3086
      18       1     658    3086    4537    2806
      19       1     520    2806    4537    2369
      20       1     519    2369    4537    4536
$ ... 4324 like lines cut
*END
